<configuration>
    <input>
        <net-file value="/data/XXXXX/LLMNavigation/Data/NYC/NewYork.net.xml"/>
    </input>
</configuration>